*SPEF "IEEE 1481-1998"
*DESIGN "alu_top_module"
*DATE "Tue Sep  5 00:48:31 2023"
*VENDOR "Cadence Design Systems, Inc."
*PROGRAM "Innovus"
*VERSION "20.10-p004_1"
*DESIGN_FLOW "PIN_CAP NONE" "NAME_SCOPE LOCAL"
*DIVIDER /
*DELIMITER :
*BUS_DELIMITER []
*T_UNIT 1 NS
*C_UNIT 1 PF
*R_UNIT 1 OHM
*L_UNIT 1 HENRY

// MMMC spef file for corner 'default_rc_corner'

*NAME_MAP

*1 result_out_out[7]
*2 result_out_out[6]
*3 result_out_out[5]
*4 result_out_out[4]
*5 result_out_out[3]
*6 result_out_out[2]
*7 result_out_out[1]
*8 result_out_out[0]
*9 flag_carry_out
*10 flag_zero_out
*11 A_in[7]
*12 A_in[6]
*13 A_in[5]
*14 A_in[4]
*15 A_in[3]
*16 A_in[2]
*17 A_in[1]
*18 A_in[0]
*19 B_in[7]
*20 B_in[6]
*21 B_in[5]
*22 B_in[4]
*23 B_in[3]
*24 B_in[2]
*25 B_in[1]
*26 B_in[0]
*27 op_code_in[2]
*28 op_code_in[1]
*29 op_code_in[0]
*30 clk_in
*31 en_in
*32 A_out[7]
*33 A_out[6]
*34 A_out[5]
*35 A_out[4]
*36 A_out[3]
*37 A_out[2]
*38 A_out[1]
*39 A_out[0]
*40 B_out[7]
*41 B_out[6]
*42 B_out[5]
*43 B_out[4]
*44 B_out[3]
*45 B_out[2]
*46 B_out[1]
*47 B_out[0]
*48 op_code_out[2]
*49 op_code_out[1]
*50 op_code_out[0]
*51 clk_out
*52 en_out
*53 result_out_temp[7]
*54 result_out_temp[6]
*55 result_out_temp[5]
*56 result_out_temp[4]
*57 result_out_temp[3]
*58 result_out_temp[2]
*59 result_out_temp[1]
*60 result_out_temp[0]
*61 flag_carry_temp
*62 flag_zero_temp
*63 top1/n_1
*64 top1/n_2
*65 top1/n_3
*66 top1/n_4
*67 top1/n_7
*68 top1/n_9
*69 top1/n_10
*70 top1/n_11
*71 top1/n_12
*72 top1/n_13
*73 top1/n_14
*74 top1/n_15
*75 top1/n_16
*76 top1/n_17
*77 top1/n_18
*78 top1/n_19
*79 top1/n_20
*80 top1/n_21
*81 top1/n_22
*82 top1/n_23
*83 top1/n_24
*84 top1/n_25
*85 top1/n_26
*86 top1/n_27
*87 top1/n_28
*88 top1/n_29
*89 top1/n_30
*90 top1/n_31
*91 top1/n_32
*92 top1/n_34
*93 top1/n_35
*94 top1/n_36
*95 top1/n_37
*96 top1/n_38
*97 top1/n_40
*98 top1/n_41
*99 top1/n_42
*100 top1/n_43
*101 top1/n_44
*102 top1/n_45
*103 top1/n_46
*104 top1/n_47
*105 top1/n_48
*106 top1/n_49
*107 top1/n_50
*108 top1/n_51
*109 top1/n_52
*110 top1/n_53
*111 top1/n_54
*112 top1/n_55
*113 top1/n_56
*114 top1/n_57
*115 top1/n_58
*116 top1/n_59
*117 top1/n_60
*118 top1/n_61
*119 top1/n_62
*120 top1/n_63
*121 top1/n_64
*122 top1/n_65
*123 top1/n_66
*124 top1/n_67
*125 top1/n_68
*126 top1/n_69
*127 top1/n_70
*128 top1/n_71
*129 top1/n_72
*130 top1/n_73
*131 top1/n_74
*132 top1/n_75
*133 top1/n_76
*134 top1/n_77
*135 top1/n_78
*136 top1/n_79
*137 top1/n_80
*138 top1/n_81
*139 top1/n_82
*140 top1/n_83
*141 top1/n_84
*142 top1/n_85
*143 top1/n_86
*144 top1/n_87
*145 top1/n_88
*146 top1/n_89
*147 top1/n_90
*148 top1/n_91
*149 top1/n_92
*150 top1/n_93
*151 top1/n_94
*152 top1/n_95
*153 top1/n_96
*154 top1/n_97
*155 top1/n_98
*156 top1/n_99
*157 top1/n_100
*158 top1/n_101
*159 top1/n_102
*160 top1/n_103
*161 top1/n_104
*162 top1/n_105
*163 top1/n_106
*164 top1/n_107
*165 top1/n_108
*166 top1/n_109
*167 top1/n_110
*168 top1/n_111
*169 top1/n_112
*170 top1/n_113
*171 top1/n_114
*172 top1/n_115
*173 top1/n_116
*174 top1/n_117
*175 top1/n_118
*176 top1/n_119
*177 top1/n_120
*178 top1/n_121
*179 top1/n_122
*180 top1/n_123
*181 top1/n_124
*182 top1/n_125
*183 top1/n_126
*184 top1/n_127
*185 top1/n_128
*186 top1/n_129
*187 top1/n_130
*188 top1/n_131
*189 top1/n_132
*190 top1/n_133
*191 top1/n_134
*192 top1/n_135
*193 top1/n_136
*194 top1/n_137
*195 top1/n_138
*196 top1/n_139
*197 top1/n_140
*198 top1/n_141
*199 top1/n_142
*200 top1/n_143
*201 top1/n_144
*202 top1/n_145
*203 top1/n_146
*204 top1/n_147
*205 top1/n_148
*206 top1/n_149
*207 top1/n_150
*208 top1/n_151
*209 top1/n_152
*210 top1/n_153
*211 top1/n_154
*212 top1/n_155
*213 top1/n_156
*214 top1/n_157
*215 top1/n_158
*216 top1/n_159
*217 top1/n_160
*218 top1/n_161
*219 top1/n_162
*220 top1/n_163
*221 top1/n_164
*222 top1/n_165
*223 top1/n_166
*224 top1/n_167
*225 top1/n_168
*226 top1/n_169
*227 top1/n_170
*228 top1/n_171
*229 top1/n_172
*230 top1/n_173
*231 top1/n_174
*232 top1/n_175
*233 top1/n_176
*234 top1/n_177
*235 top1/n_178
*236 top1/n_179
*237 top1/n_180
*238 top1/n_181
*239 top1/n_182
*240 top1/n_183
*241 top1/n_184
*242 top1/n_185
*243 top1/n_186
*244 top1/n_187
*245 top1/n_188
*246 top1/n_189
*247 top1/n_190
*248 top1/n_191
*249 top1/n_192
*250 top1/n_193
*251 top1/n_194
*252 top1/n_195
*253 top1/n_196
*254 top1/n_197
*255 top1/n_198
*256 top1/n_199
*257 top1/n_221
*258 top1/n_222
*259 top1/n_223
*260 A0
*261 A1
*262 A2
*263 A3
*264 A4
*265 A5
*266 A6
*267 A7
*268 B0
*269 B1
*270 B2
*271 B3
*272 B4
*273 B5
*274 B6
*275 B7
*276 op_code0
*277 op_code1
*278 op_code2
*279 clk
*280 en
*281 result0
*282 result1
*283 result2
*284 result3
*285 result4
*286 result5
*287 result6
*288 result7
*289 flag_carry
*290 flag_zero
*291 top1/flag_zero_reg
*292 top1/g3088
*293 top1/g3089
*294 top1/result_reg\[7\]
*295 top1/flag_carry_reg
*296 top1/g3094
*297 top1/g3092
*298 top1/result_reg\[2\]
*299 top1/g3093
*300 top1/result_reg\[6\]
*301 top1/g3095
*302 top1/g3111
*303 top1/g3099
*304 top1/result_reg\[0\]
*305 top1/g3118
*306 top1/g3122
*307 top1/g3100
*308 top1/g3097
*309 top1/g3098
*310 top1/result_reg\[5\]
*311 top1/g3103
*312 top1/g3125
*313 top1/g3104
*314 top1/g3121
*315 top1/g3101
*316 top1/g3140
*317 top1/g3105
*318 top1/g3131
*319 top1/g3107
*320 top1/g3106
*321 top1/result_reg\[4\]
*322 top1/g3142
*323 top1/g3147
*324 top1/g3150
*325 top1/g3112
*326 top1/g3135
*327 top1/g3109
*328 top1/g3115
*329 top1/result_reg\[3\]
*330 top1/g3114
*331 top1/g3113
*332 top1/g3137
*333 top1/g3138
*334 top1/g3116
*335 top1/result_reg\[1\]
*336 top1/g3158
*337 top1/g3160
*338 top1/g3134
*339 top1/g3141
*340 top1/g3151
*341 top1/g3152
*342 top1/g3128
*343 top1/g3127
*344 top1/g3136
*345 top1/g3153
*346 top1/g3146
*347 top1/g3133
*348 top1/g3172
*349 top1/g3173
*350 top1/g3148
*351 top1/g3149
*352 top1/g3161
*353 top1/g3162
*354 top1/g3159
*355 top1/g3120
*356 top1/g3154
*357 top1/g3129
*358 top1/g3166
*359 top1/g3117
*360 top1/g3157
*361 top1/g3124
*362 top1/g3182
*363 top1/g3187
*364 top1/g3144
*365 top1/g3130
*366 top1/g3168
*367 top1/g3176
*368 top1/g3177
*369 top1/g3143
*370 top1/g3145
*371 top1/g3123
*372 top1/g3174
*373 top1/g3165
*374 top1/g3132
*375 top1/g3171
*376 top1/g3198
*377 top1/g3200
*378 top1/g3167
*379 top1/g3175
*380 top1/g3181
*381 top1/g3184
*382 top1/g3195
*383 top1/g3194
*384 top1/g3205
*385 top1/g3202
*386 top1/g3155
*387 top1/g3164
*388 top1/g3163
*389 top1/g3179
*390 top1/g3178
*391 top1/g3183
*392 top1/g3156
*393 top1/g3192
*394 top1/g3188
*395 top1/g3199
*396 top1/g3185
*397 top1/g3196
*398 top1/g3189
*399 top1/g3216
*400 top1/g3207
*401 top1/g3214
*402 top1/g3215
*403 top1/g3197
*404 top1/g3186
*405 top1/g3218
*406 top1/g3219
*407 top1/g3217
*408 top1/g3180
*409 top1/g3170
*410 top1/g3169
*411 top1/g3191
*412 top1/g3212
*413 top1/g3226
*414 top1/g3237
*415 top1/g3204
*416 top1/g3209
*417 top1/g3208
*418 top1/g3201
*419 top1/g3203
*420 top1/g3190
*421 top1/g3193
*422 top1/g3213
*423 top1/g3225
*424 top1/g3221
*425 top1/g3222
*426 top1/g3224
*427 top1/g3230
*428 top1/g3243
*429 top1/g3228
*430 top1/g3232
*431 top1/g3206
*432 top1/g3231
*433 top1/g3229
*434 top1/g3236
*435 top1/g3240
*436 top1/g3233
*437 top1/g3235
*438 top1/g3239
*439 top1/g3210
*440 top1/g3234
*441 top1/g3223
*442 top1/g3211
*443 top1/g3246
*444 top1/g3245
*445 top1/g3241
*446 top1/g3254
*447 top1/g3242
*448 top1/g3238
*449 top1/g3244
*450 top1/g3220
*451 top1/g3261
*452 top1/g3253
*453 top1/g3259
*454 top1/g3255
*455 top1/g3227
*456 top1/g3257
*457 top1/g3252
*458 top1/g3258
*459 top1/g3247
*460 top1/g3256
*461 top1/g3250
*462 top1/g3260
*463 top1/g3264
*464 top1/g3249
*465 top1/g3262
*466 top1/g3280
*467 top1/g3270
*468 top1/g3281
*469 top1/g3271
*470 top1/g3267
*471 top1/g3272
*472 top1/g3265
*473 top1/g3268
*474 top1/g3273
*475 top1/g3269
*476 top1/g3277
*477 top1/g3278
*478 top1/g3266
*479 top1/g3276
*480 top1/g3282
*481 top1/g3284
*482 top1/g3279
*483 top1/g3283
*484 top1/g3286
*485 top1/g3285
*486 top1/g3296
*487 top1/g3289
*488 top1/g3295
*489 top1/g3294
*490 top1/g3292
*491 top1/g3293
*492 top1/g3291
*493 top1/g3290
*494 top1/g3288
*495 top1/g2
*496 top1/g3307
*497 top1/g3308


*PORTS

*1 O *C 389.85 100.25
*2 O *C 389.85 61.15
*3 O *C 389.85 22.05
*4 O *C 389.85 -17.05
*5 O *C 389.85 -56.15
*6 O *C 389.85 -95.25
*7 O *C 389.85 -134.35
*8 O *C 389.85 -173.45
*9 O *C 389.85 139.35
*10 O *C 389.85 178.45
*11 I *C 139.35 428.95
*12 I *C 100.25 428.95
*13 I *C 61.15 428.95
*14 I *C 22.05 428.95
*15 I *C -17.05 428.95
*16 I *C -56.15 428.95
*17 I *C -95.25 428.95
*18 I *C -134.35 428.95
*19 I *C 139.35 -428.95
*20 I *C 100.25 -428.95
*21 I *C 61.15 -428.95
*22 I *C 22.05 -428.95
*23 I *C -17.05 -428.95
*24 I *C -56.15 -428.95
*25 I *C -95.25 -428.95
*26 I *C -134.35 -428.95
*27 I *C -389.85 -95.25
*28 I *C -389.85 -134.35
*29 I *C -389.85 -173.45
*30 I *C -389.85 -56.15
*31 I *C -389.85 -17.05


*D_NET *32 0.0459307

*CONN
*I *407:B2 I *C 57.81 -15.86 *L 0.00568 *D AOI22S
*I *374:I1 I *C 65.25 -11.38 *L 0.00489 *D NR2
*I *361:B2 I *C 55.95 -5.22 *L 0.00226 *D AO12S
*I *371:I3 I *C 75.79 -11.38 *L 0.00538 *D ND3
*I *267:O O *C 139.97 196.57 *L 0 *D XMC
*I *332:C1 I *C 75.79 -31.54 *L 0.00704 *D MAO222
*I *487:I I *C 80.75 -26.5 *L 0.00351 *D INV1S

*CAP
1 *32:2 5.25722e-05
2 *32:3 5.25722e-05
3 *32:4 0.000372336
4 *32:5 0.000372336
5 *32:6 0.000742772
6 *32:7 0.00129392
7 *32:8 0.000210289
8 *32:9 0.000761438
9 *32:10 3.83493e-05
10 *32:11 0.000413707
11 *32:12 3.83493e-05
12 *32:13 3.83493e-05
13 *32:14 0.000413707
14 *32:15 3.83493e-05
15 *32:18 0.00452824
16 *32:20 0.00452824
17 *32:21 0.000997083
18 *32:22 0.0142087
19 *32:23 0.000997083
20 *32:24 0.0142087
21 *32:25 0.000358324
22 *32:26 2.12794e-05
23 *32:27 0.000358324
24 *32:28 0.000380409
25 *32:29 3.47564e-05
26 *32:30 3.83493e-05
27 *32:31 0.000380409
28 *267:O 1.3477e-05
29 *32:33 3.83493e-05

*RES
1 *32:33 *487:I 6.5
2 *32:31 *332:C1 6.5
3 *32:30 *32:33 0.0963767
4 *32:29 *267:O 0.0420712
5 *32:28 *32:31 0.915929
6 *32:27 *32:30 6.5
7 *32:26 *32:29 0.0664281
8 *32:25 *32:28 6.5
9 *32:25 *32:27 1.09826
10 *32:24 *32:26 6.5
11 *32:23 *32:25 6.5
12 *32:22 *32:24 34.934
13 *32:21 *32:23 2.5058
14 *32:20 *32:22 6.5
15 *32:18 *32:21 6.5
16 *32:18 *32:20 14.2775
17 *32:15 *371:I3 6.5
18 *32:15 *32:18 6.5
19 *32:14 *361:B2 6.5
20 *32:13 *374:I1 6.5
21 *32:12 *32:15 0.0963767
22 *32:11 *32:14 1.02205
23 *32:10 *32:13 0.0963767
24 *32:9 *32:12 6.5
25 *32:8 *32:11 6.5
26 *32:7 *32:10 6.5
27 *32:7 *32:9 2.3338
28 *32:6 *32:8 0.549131
29 *32:6 *32:7 1.51011
30 *32:5 *32:6 6.5
31 *32:4 *32:5 0.919848
32 *32:3 *32:4 6.5
33 *32:2 *32:3 0.137283
34 *32:1 *32:2 6.5
35 *407:B2 *32:1 6.5
*END

*D_NET *33 0.0423529

*CONN
*I *341:C1 I *C 67.73 -46.66 *L 0.00704 *D MAO222
*I *425:I2 I *C 66.49 -16.42 *L 0.00398 *D ND2S
*I *405:B2 I *C 42.93 -5.78 *L 0.00568 *D AOI22S
*I *489:I I *C 69.59 -1.3 *L 0.00351 *D INV1S
*I *266:O O *C 100.87 196.57 *L 0 *D XMC

*CAP
1 *33:2 4.48301e-05
2 *33:3 4.48301e-05
3 *33:4 0.00205497
4 *33:5 0.00278361
5 *33:6 0.000728637
6 *33:7 4.47905e-05
7 *33:8 4.47905e-05
8 *33:9 4.47905e-05
9 *33:10 0.00198116
10 *33:12 0.000306795
11 *33:13 0.00193637
12 *33:15 0.000306795
13 *33:17 0.000223952
14 *33:19 0.00250827
15 *33:20 0.00228431
16 *33:22 0.0134689
17 *33:24 0.0134689
18 *33:25 2.44212e-05
19 *33:26 3.80683e-05
20 *266:O 1.36471e-05

*RES
1 *33:26 *266:O 0.0420704
2 *33:25 *33:26 0.0752839
3 *33:24 *33:25 6.5
4 *33:22 *33:24 33.3871
5 *33:21 *489:I 6.5
6 *33:20 *33:22 6.5
7 *33:19 *33:21 6.5
8 *33:19 *33:20 7.0014
9 *33:17 *33:19 0.686412
10 *33:16 *405:B2 6.5
11 *33:15 *33:17 6.5
12 *33:13 *33:16 6.5
13 *33:12 *33:15 0.771014
14 *33:11 *425:I2 6.5
15 *33:10 *33:13 5.21674
16 *33:10 *33:12 6.5
17 *33:9 *33:11 6.5
18 *33:8 *33:10 0.137282
19 *33:7 *33:9 0.137282
20 *33:6 *33:8 6.5
21 *33:5 *33:7 6.5
22 *33:5 *33:6 1.83116
23 *33:4 *33:5 4.95779
24 *33:3 *33:4 6.5
25 *33:2 *33:3 0.137282
26 *33:1 *33:2 6.5
27 *341:C1 *33:1 6.5
*END

*D_NET *34 0.0508971

*CONN
*I *491:I I *C 48.51 -61.78 *L 0.00351 *D INV1S
*I *353:C1 I *C 54.09 -61.78 *L 0.00704 *D MAO222
*I *401:B2 I *C 26.19 -11.94 *L 0.00568 *D AOI22S
*I *407:A2 I *C 57.19 -15.86 *L 0.00615 *D AOI22S
*I *410:I1 I *C 33.01 3.74 *L 0.00489 *D NR2
*I *388:B2 I *C 37.97 4.86 *L 0.00226 *D AO12S
*I *409:I2 I *C 33.01 8.78 *L 0.00477 *D ND2
*I *387:B2 I *C 40.45 8.78 *L 0.00625 *D OAI12HS
*I *265:O O *C 61.77 196.57 *L 0 *D XMC

*CAP
1 *34:1 4.06494e-05
2 *34:2 4.06494e-05
3 *34:3 0.000457527
4 *34:4 0.000457527
5 *34:5 4.06494e-05
6 *34:7 4.06494e-05
7 *34:8 0.000228763
8 *34:10 0.000228763
9 *34:11 0.00330811
10 *34:12 0.00334948
11 *34:13 4.13707e-05
12 *34:14 0.00212918
13 *34:15 0.000499436
14 *34:16 0.00212918
15 *34:17 0.000499436
16 *34:18 0.000289595
17 *34:19 4.13707e-05
18 *34:20 0.00128249
19 *34:21 4.13707e-05
20 *34:22 0.000992896
21 *34:25 0.000315434
22 *34:28 0.000315434
23 *34:31 0.000124112
24 *34:32 0.000124112
25 *34:33 0.000262861
26 *34:34 0.000683439
27 *34:35 0.000420578
28 *34:36 4.13707e-05
29 *34:37 0.000124112
30 *34:38 0.000413707
31 *34:39 0.000496448
32 *34:40 0.000372336
33 *34:42 0.000372336
34 *34:45 0.000210289
35 *34:46 0.00199775
36 *34:47 0.00178746
37 *34:48 8.27413e-05
38 *34:49 0.0132345
39 *34:50 8.27413e-05
40 *34:51 0.0132345
41 *34:53 1.71978e-05
42 *34:54 3.08449e-05
43 *265:O 1.36471e-05

*RES
1 *34:54 *265:O 0.0420704
2 *34:53 *34:54 0.0531416
3 *34:51 *34:53 6.5
4 *34:50 *387:B2 6.5
5 *34:49 *34:51 31.8896
6 *34:48 *34:50 0.204411
7 *34:47 *34:49 6.5
8 *34:46 *34:48 6.5
9 *34:46 *34:47 4.66761
10 *34:45 *34:46 0.549131
11 *34:42 *34:45 6.5
12 *34:40 *409:I2 6.5
13 *34:39 *388:B2 6.5
14 *34:39 *34:42 0.919848
15 *34:38 *410:I1 6.5
16 *34:38 *34:40 0.919848
17 *34:37 *34:39 0.306616
18 *34:36 *34:38 0.102205
19 *34:35 *34:37 6.5
20 *34:34 *34:36 6.5
21 *34:34 *34:35 1.09826
22 *34:33 *34:34 0.686413
23 *34:32 *34:33 6.5
24 *34:31 *34:32 0.306616
25 *34:28 *34:31 6.5
26 *34:27 *407:A2 6.5
27 *34:26 *401:B2 6.5
28 *34:25 *34:28 0.823696
29 *34:24 *34:27 6.5
30 *34:23 *34:26 6.5
31 *34:22 *34:25 6.5
32 *34:21 *34:24 6.5
33 *34:20 *34:23 6.5
34 *34:20 *34:22 2.45293
35 *34:19 *34:21 0.102205
36 *34:18 *34:20 0.715438
37 *34:17 *34:19 6.5
38 *34:16 *34:18 6.5
39 *34:15 *34:17 1.30419
40 *34:14 *34:16 5.55995
41 *34:13 *34:15 6.5
42 *34:12 *34:14 6.5
43 *34:12 *34:13 0.102205
44 *34:11 *34:12 7.97696
45 *34:10 *34:11 6.5
46 *34:8 *34:10 0.617799
47 *34:7 *353:C1 6.5
48 *34:6 *34:8 6.5
49 *34:5 *34:7 0.0971353
50 *34:4 *34:6 6.5
51 *34:4 *34:5 6.5
52 *34:3 *34:4 1.2356
53 *34:2 *34:3 6.5
54 *34:1 *34:2 0.0971353
55 *491:I *34:1 6.5
*END

*D_NET *35 0.0422282

*CONN
*I *405:A2 I *C 43.55 -5.78 *L 0.00615 *D AOI22S
*I *367:C1 I *C 24.95 -61.78 *L 0.00704 *D MAO222
*I *488:I I *C 18.13 -1.3 *L 0.00351 *D INV1S
*I *406:B2 I *C 17.51 -5.78 *L 0.00568 *D AOI22S
*I *264:O O *C 22.67 196.57 *L 0 *D XMC

*CAP
1 *35:1 4.13707e-05
2 *35:2 4.13707e-05
3 *35:3 0.00157717
4 *35:4 0.00157717
5 *35:5 0.0041348
6 *35:6 8.27413e-05
7 *35:7 0.00405206
8 *35:8 0.000578295
9 *35:10 0.000578295
10 *35:12 0.000330965
11 *35:14 0.000289595
12 *35:15 4.13707e-05
13 *35:18 5.25722e-05
14 *35:19 0.0139856
15 *35:20 5.25722e-05
16 *35:21 0.0139856
17 *35:23 0.000309205
18 *35:25 0.000309205
19 *35:26 7.63943e-05
20 *35:27 7.63943e-05
21 *35:28 1.42491e-05
22 *35:29 2.77857e-05
23 *264:O 1.35366e-05

*RES
1 *35:29 *264:O 0.0420704
2 *35:28 *35:29 0.0442846
3 *35:27 *35:28 6.5
4 *35:26 *35:27 0.190942
5 *35:25 *35:26 6.5
6 *35:23 *35:25 0.960977
7 *35:22 *406:B2 6.5
8 *35:21 *35:23 6.5
9 *35:20 *35:22 6.5
10 *35:19 *35:21 33.7428
11 *35:18 *35:20 0.137283
12 *35:16 *35:19 6.5
13 *35:15 *35:18 6.5
14 *35:14 *488:I 6.5
15 *35:14 *35:16 6.5
16 *35:12 *35:15 0.102205
17 *35:12 *35:14 0.715438
18 *35:11 *367:C1 6.5
19 *35:10 *35:12 6.5
20 *35:9 *35:11 6.5
21 *35:8 *35:10 1.51011
22 *35:7 *35:9 6.5
23 *35:6 *35:8 6.5
24 *35:5 *35:7 9.81159
25 *35:5 *35:6 0.204411
26 *35:4 *35:5 6.5
27 *35:3 *35:4 4.11848
28 *35:2 *35:3 6.5
29 *35:1 *35:2 0.102205
30 *405:A2 *35:1 6.5
*END

*D_NET *36 0.0466503

*CONN
*I *480:I1 I *C 10.07 -71.86 *L 0.00419 *D ND2
*I *483:I2 I *C 4.49 -71.86 *L 0.00296 *D OR2
*I *486:I I *C 3.87 -56.74 *L 0.00351 *D INV1S
*I *402:A2 I *C 10.07 -25.94 *L 0.00615 *D AOI22S
*I *401:A2 I *C 25.57 -11.94 *L 0.00615 *D AOI22S
*I *415:B2 I *C 14.41 -2.42 *L 0.00226 *D AO12S
*I *442:I1 I *C 8.83 3.74 *L 0.00489 *D NR2
*I *439:I2 I *C 8.21 8.78 *L 0.00398 *D ND2S
*I *263:O O *C -16.43 196.57 *L 0 *D XMC

*CAP
1 *36:2 0.000455504
2 *36:3 0.000455504
3 *36:4 0.00108175
4 *36:5 0.00108175
5 *36:7 5.06116e-05
6 *36:8 5.06116e-05
7 *36:9 0.00220083
8 *36:11 0.00220083
9 *36:13 0.000477485
10 *36:14 0.000477485
11 *36:15 0.000942859
12 *36:16 0.000942859
13 *36:18 0.000359214
14 *36:19 0.00130551
15 *36:20 0.000744672
16 *36:21 0.0009463
17 *36:22 0.000744672
18 *36:23 4.13707e-05
19 *36:24 0.000454711
20 *36:25 4.13707e-05
21 *36:27 0.000454711
22 *36:30 0.000432143
23 *36:31 0.000785715
24 *36:32 0.0130602
25 *36:34 0.0127066
26 *36:35 4.77485e-05
27 *36:36 0.00185624
28 *36:37 4.77485e-05
29 *36:38 0.00185624
30 *36:40 0.000147981
31 *36:42 0.000147981
32 *36:43 1.16837e-05
33 *36:44 2.5558e-05
34 *263:O 1.38744e-05

*RES
1 *36:44 *263:O 0.0420717
2 *36:43 *36:44 0.0354288
3 *36:42 *36:43 6.5
4 *36:40 *36:42 0.352363
5 *36:39 *439:I2 6.5
6 *36:38 *36:40 6.5
7 *36:37 *36:39 6.5
8 *36:36 *36:38 5.62875
9 *36:35 *36:37 0.137282
10 *36:34 *36:36 6.5
11 *36:32 *36:35 6.5
12 *36:32 *36:34 29.3844
13 *36:31 *442:I1 6.5
14 *36:31 *36:32 0.875973
15 *36:30 *36:31 1.07063
16 *36:27 *36:30 6.5
17 *36:26 *415:B2 6.5
18 *36:25 *401:A2 6.5
19 *36:24 *36:27 1.23554
20 *36:24 *36:26 6.5
21 *36:23 *36:25 0.102205
22 *36:22 *36:24 6.5
23 *36:21 *36:23 6.5
24 *36:20 *36:22 1.8397
25 *36:19 *36:21 2.47109
26 *36:19 *36:20 6.5
27 *36:18 *36:19 0.960978
28 *36:16 *36:18 6.5
29 *36:15 *402:A2 6.5
30 *36:15 *36:16 2.33593
31 *36:14 *36:15 6.5
32 *36:13 *36:14 1.37282
33 *36:11 *36:13 6.5
34 *36:10 *486:I 6.5
35 *36:9 *36:11 5.60475
36 *36:8 *36:10 6.5
37 *36:8 *36:9 6.5
38 *36:7 *36:8 0.137283
39 *36:5 *36:7 6.5
40 *36:4 *483:I2 6.5
41 *36:4 *36:5 2.75981
42 *36:3 *36:4 6.5
43 *36:2 *36:3 1.23554
44 *36:1 *36:2 6.5
45 *480:I1 *36:1 6.5
*END

*D_NET *37 0.0485872

*CONN
*I *399:B2 I *C -17.83 -11.94 *L 0.00568 *D AOI22S
*I *448:B2 I *C -16.59 -6.34 *L 0.00217 *D MOAI1S
*I *448:A2 I *C -14.73 -5.22 *L 0.00252 *D MOAI1S
*I *493:I I *C -7.91 3.74 *L 0.00351 *D INV1S
*I *406:A2 I *C 18.13 -5.78 *L 0.00615 *D AOI22S
*I *262:O O *C -55.53 196.57 *L 0 *D XMC
*I *418:C1 I *C -6.05 -56.74 *L 0.00704 *D MAO222

*CAP
1 *37:2 4.77485e-05
2 *37:3 4.77485e-05
3 *37:4 0.000196429
4 *37:5 0.000196429
5 *37:6 4.77485e-05
6 *37:7 4.77485e-05
7 *37:8 0.000196429
8 *37:9 0.000275
9 *37:10 7.85715e-05
10 *37:12 0.000238743
11 *37:13 0.000668479
12 *37:14 9.54971e-05
13 *37:15 0.000525234
14 *37:17 0.0137257
15 *37:18 0.000667858
16 *37:20 0.0137257
17 *37:21 0.000628572
18 *37:22 3.92858e-05
19 *37:23 0.00275973
20 *37:25 0.000143246
21 *37:26 0.00275973
22 *37:27 0.00205936
23 *37:28 0.000112325
24 *37:29 0.00191611
25 *37:30 0.00361512
26 *37:31 0.000112325
27 *37:33 0.00361512
28 *37:34 8.7482e-06
29 *37:37 2.25995e-05
30 *262:O 1.38513e-05

*RES
1 *37:38 *418:C1 6.5
2 *37:37 *262:O 0.0420717
3 *37:36 *37:38 6.5
4 *37:34 *37:37 0.0265716
5 *37:33 *37:36 6.5
6 *37:32 *406:A2 6.5
7 *37:31 *37:34 6.5
8 *37:30 *37:33 9.10864
9 *37:29 *37:32 6.5
10 *37:28 *37:31 0.264272
11 *37:27 *37:30 6.5
12 *37:27 *37:29 5.35402
13 *37:26 *37:28 6.5
14 *37:25 *37:27 0.411847
15 *37:23 *37:26 8.37448
16 *37:22 *37:25 6.5
17 *37:21 *493:I 6.5
18 *37:20 *37:23 6.5
19 *37:18 *37:22 0.0973303
20 *37:18 *37:21 1.55729
21 *37:17 *37:20 31.9057
22 *37:16 *448:A2 6.5
23 *37:15 *37:18 6.5
24 *37:14 *37:17 6.5
25 *37:13 *37:16 6.5
26 *37:13 *37:15 1.51011
27 *37:12 *37:14 0.274565
28 *37:12 *37:13 0.411847
29 *37:10 *37:12 6.5
30 *37:9 *448:B2 6.5
31 *37:9 *37:10 0.194661
32 *37:8 *37:9 0.486652
33 *37:7 *37:8 6.5
34 *37:6 *37:7 0.137282
35 *37:5 *37:6 6.5
36 *37:4 *37:5 0.486652
37 *37:3 *37:4 6.5
38 *37:2 *37:3 0.137282
39 *37:1 *37:2 6.5
40 *399:B2 *37:1 6.5
*END

*D_NET *38 0.0557165

*CONN
*I *490:I I *C -33.33 -61.78 *L 0.00351 *D INV1S
*I *450:C1 I *C -32.71 -56.74 *L 0.00704 *D MAO222
*I *424:I2 I *C -1.71 -21.46 *L 0.00398 *D ND2S
*I *384:B2 I *C 1.39 -26.5 *L 0.00217 *D MOAI1S
*I *485:I1 I *C -14.73 -1.3 *L 0.00419 *D ND2
*I *481:I2 I *C -1.71 4.3 *L 0.00408 *D NR2
*I *261:O O *C -94.63 196.57 *L 0 *D XMC

*CAP
1 *38:1 0.000360582
2 *38:2 0.000360582
3 *38:3 5.06116e-05
4 *38:4 5.06116e-05
5 *38:6 0.000120194
6 *38:8 0.000120194
7 *38:9 0.00227752
8 *38:10 0.00227752
9 *38:11 0.00220317
10 *38:12 0.00220317
11 *38:13 0.000238743
12 *38:14 0.000477485
13 *38:15 0.000432143
14 *38:16 0.000238743
15 *38:17 0.00184643
16 *38:18 7.85715e-05
17 *38:19 0.00141429
18 *38:21 7.85715e-05
19 *38:22 0.00105047
20 *38:24 4.77485e-05
21 *38:25 0.00665952
22 *38:26 0.000392858
23 *38:28 0.0056568
24 *38:29 0.000392858
25 *38:31 0.0132764
26 *38:32 4.77485e-05
27 *38:33 0.0132764
28 *38:34 4.77485e-05
29 *38:35 5.76881e-06
30 *38:37 1.94697e-05
31 *261:O 1.37009e-05

*RES
1 *38:37 *261:O 0.0420712
2 *38:36 *481:I2 6.5
3 *38:35 *38:37 0.0177142
4 *38:34 *38:36 6.5
5 *38:33 *38:35 6.5
6 *38:32 *38:34 0.137282
7 *38:31 *38:33 34.6192
8 *38:29 *38:32 6.5
9 *38:28 *38:31 6.5
10 *38:27 *485:I1 6.5
11 *38:26 *38:29 0.973303
12 *38:25 *38:28 17.7094
13 *38:25 *38:27 6.5
14 *38:24 *38:26 6.5
15 *38:22 *38:25 2.88293
16 *38:22 *38:24 0.137282
17 *38:21 *384:B2 6.5
18 *38:19 *38:22 6.5
19 *38:18 *38:21 0.194661
20 *38:17 *424:I2 6.5
21 *38:17 *38:19 3.50389
22 *38:16 *38:18 6.5
23 *38:15 *38:17 1.07063
24 *38:14 *38:16 0.686412
25 *38:14 *38:15 6.5
26 *38:13 *38:14 0.686412
27 *38:12 *38:13 6.5
28 *38:11 *38:12 5.6194
29 *38:10 *38:11 6.5
30 *38:9 *38:10 6.17772
31 *38:8 *38:9 6.5
32 *38:6 *38:8 0.306646
33 *38:5 *450:C1 6.5
34 *38:4 *38:6 6.5
35 *38:4 *38:5 6.5
36 *38:3 *38:4 0.137283
37 *38:2 *38:3 6.5
38 *38:1 *38:2 0.919938
39 *490:I *38:1 6.5
*END

*D_NET *39 0.0642178

*CONN
*I *484:I1 I *C -38.91 -46.1 *L 0.00199 *D AN2
*I *479:I2 I *C -42.01 -42.18 *L 0.00408 *D NR2
*I *399:A2 I *C -18.45 -11.94 *L 0.00615 *D AOI22S
*I *497:I1 I *C -40.77 -56.18 *L 0.00223 *D OR2B1S
*I *485:I2 I *C -15.97 -1.3 *L 0.00477 *D ND2
*I *481:I1 I *C -2.95 3.74 *L 0.00489 *D NR2
*I *384:A2 I *C 3.25 -25.38 *L 0.00252 *D MOAI1S
*I *260:O O *C -133.73 196.57 *L 0 *D XMC

*CAP
1 *39:2 5.06116e-05
2 *39:3 5.06116e-05
3 *39:4 0.000320518
4 *39:5 0.000320518
5 *39:6 5.06116e-05
6 *39:7 0.000227083
7 *39:8 0.00210123
8 *39:9 0.00021973
9 *39:10 0.00210123
10 *39:11 0.0010185
11 *39:12 4.32581e-05
12 *39:13 0.0015757
13 *39:14 0.0010185
14 *39:15 3.9173e-05
15 *39:16 0.00181444
16 *39:17 4.32581e-05
17 *39:18 3.9173e-05
18 *39:19 0.000238743
19 *39:21 4.32581e-05
20 *39:23 0.00074643
21 *39:26 0.0011
22 *39:28 0.000353572
23 *39:29 4.77485e-05
24 *39:30 0.00100272
25 *39:31 4.77485e-05
26 *39:32 0.00114596
27 *39:33 4.77485e-05
28 *39:35 0.000190994
29 *39:37 0.0131342
30 *39:39 0.00200357
31 *39:41 0.0131342
32 *39:42 0.00200357
33 *39:43 0.00855567
34 *39:44 0.000286491
35 *39:45 0.00855567
36 *39:46 0.000286491
37 *39:47 7.35896e-05
38 *39:48 3.92858e-05
39 *39:49 7.35896e-05
40 *39:50 3.92858e-05
41 *39:51 2.88441e-06
42 *39:53 1.65853e-05
43 *260:O 1.37009e-05

*RES
1 *39:53 *260:O 0.0420712
2 *39:51 *39:53 0.0088571
3 *39:50 *384:A2 6.5
4 *39:49 *39:51 6.5
5 *39:48 *39:50 0.0973303
6 *39:47 *39:49 0.176187
7 *39:46 *39:48 6.5
8 *39:45 *39:47 6.5
9 *39:44 *39:46 0.823694
10 *39:43 *39:45 26.0843
11 *39:42 *39:44 6.5
12 *39:41 *39:43 6.5
13 *39:39 *39:42 4.96385
14 *39:37 *39:41 30.4365
15 *39:36 *481:I1 6.5
16 *39:35 *39:39 6.5
17 *39:34 *485:I2 6.5
18 *39:33 *39:37 6.5
19 *39:32 *39:36 6.5
20 *39:32 *39:35 0.549129
21 *39:31 *39:34 6.5
22 *39:30 *39:33 0.137282
23 *39:30 *39:32 2.74565
24 *39:29 *39:31 0.137282
25 *39:28 *39:30 6.5
26 *39:26 *39:29 6.5
27 *39:26 *39:28 0.875973
28 *39:25 *497:I1 6.5
29 *39:23 *39:26 1.84928
30 *39:21 *39:25 6.5
31 *39:20 *399:A2 6.5
32 *39:19 *39:23 6.5
33 *39:18 *479:I2 6.5
34 *39:17 *39:21 0.137288
35 *39:16 *39:20 6.5
36 *39:16 *39:19 0.686412
37 *39:15 *39:18 0.088289
38 *39:14 *39:17 6.5
39 *39:13 *39:16 4.53032
40 *39:12 *39:15 6.5
41 *39:11 *39:14 2.29552
42 *39:10 *39:13 6.5
43 *39:9 *39:12 0.137288
44 *39:9 *39:11 6.5
45 *39:8 *39:10 5.27819
46 *39:7 *39:9 0.549148
47 *39:7 *39:8 6.5
48 *39:6 *39:7 0.137283
49 *39:5 *39:6 6.5
50 *39:4 *39:5 0.817723
51 *39:3 *39:4 6.5
52 *39:2 *39:3 0.137283
53 *39:1 *39:2 6.5
54 *484:I1 *39:1 6.5
*END

*D_NET *40 0.0317258

*CONN
*I *332:B1 I *C 73.31 -32.1 *L 0.00587 *D MAO222
*I *469:I2 I *C 81.99 -31.54 *L 0.00477 *D ND2
*I *467:I1 I *C 81.99 -36.58 *L 0.00489 *D NR2
*I *275:O O *C 138.73 -196.57 *L 0 *D XMC

*CAP
1 *40:1 3.78749e-05
2 *40:2 3.78749e-05
3 *40:3 0.000627622
4 *40:4 0.000627622
5 *40:5 0.000340874
6 *40:7 0.000340874
7 *40:8 0.0039975
8 *40:10 0.0039975
9 *40:11 0.0108266
10 *40:12 0.0108266
11 *40:13 2.06913e-05
12 *40:14 3.24164e-05
13 *275:O 1.17251e-05

*RES
1 *40:14 *275:O 0.0376438
2 *40:13 *40:14 0.0664302
3 *40:12 *40:13 6.5
4 *40:11 *40:12 25.1948
5 *40:10 *40:11 6.5
6 *40:8 *40:10 12.6301
7 *40:7 *467:I1 6.5
8 *40:7 *40:8 6.5
9 *40:5 *40:7 0.801152
10 *40:5 *469:I2 6.5
11 *40:4 *40:5 6.5
12 *40:3 *40:4 1.92195
13 *40:2 *40:3 6.5
14 *40:1 *40:2 0.0890169
15 *332:B1 *40:1 6.5
*END

*D_NET *41 0.0248725

*CONN
*I *341:B1 I *C 70.21 -46.1 *L 0.00587 *D MAO222
*I *466:I1 I *C 73.31 -51.7 *L 0.00489 *D NR2
*I *471:I2 I *C 81.99 -56.74 *L 0.00477 *D ND2
*I *274:O O *C 99.63 -196.57 *L 0 *D XMC

*CAP
1 *41:1 7.57497e-05
2 *41:2 7.57497e-05
3 *41:3 4.48301e-05
4 *41:4 4.48301e-05
5 *41:5 0.000454498
6 *41:6 0.000454498
7 *41:7 0.000179321
8 *41:8 0.000762112
9 *41:9 0.000582792
10 *41:11 0.000340874
11 *41:13 0.000340874
12 *41:14 4.48301e-05
13 *41:15 0.00130007
14 *41:16 0.00125524
15 *41:18 0.00942677
16 *41:20 0.00942677
17 *41:21 1.94997e-05
18 *41:22 3.13389e-05
19 *274:O 1.18391e-05

*RES
1 *41:22 *274:O 0.0376419
2 *41:21 *41:22 0.0619985
3 *41:20 *41:21 6.5
4 *41:18 *41:20 22.0587
5 *41:17 *471:I2 6.5
6 *41:16 *41:18 6.5
7 *41:15 *41:17 6.5
8 *41:15 *41:16 3.84391
9 *41:14 *41:15 0.137282
10 *41:13 *41:14 6.5
11 *41:11 *41:13 0.801152
12 *41:10 *466:I1 6.5
13 *41:9 *41:11 6.5
14 *41:8 *41:10 6.5
15 *41:8 *41:9 1.78467
16 *41:7 *41:8 0.549129
17 *41:6 *41:7 6.5
18 *41:5 *41:6 1.0682
19 *41:4 *41:5 6.5
20 *41:3 *41:4 0.137282
21 *41:2 *41:3 6.5
22 *41:1 *41:2 0.178034
23 *341:B1 *41:1 6.5
*END

*D_NET *42 0.0241951

*CONN
*I *472:I2 I *C 43.55 -76.9 *L 0.00477 *D ND2
*I *473:I1 I *C 42.31 -71.86 *L 0.00489 *D NR2
*I *353:B1 I *C 56.57 -62.34 *L 0.00587 *D MAO222
*I *273:O O *C 60.53 -196.57 *L 0 *D XMC

*CAP
1 *42:2 5.08363e-05
2 *42:3 5.08363e-05
3 *42:4 0.000365844
4 *42:5 0.000365844
5 *42:6 0.00122007
6 *42:7 0.00116923
7 *42:8 5.08363e-05
8 *42:9 0.000691039
9 *42:11 0.000691039
10 *42:13 0.000355854
11 *42:14 0.000305018
12 *42:15 5.08363e-05
13 *42:16 0.00937558
14 *42:18 0.00937558
15 *42:20 2.64723e-05
16 *42:21 3.83152e-05
17 *273:O 1.18429e-05

*RES
1 *42:21 *273:O 0.0376429
2 *42:20 *42:21 0.0841429
3 *42:18 *42:20 6.5
4 *42:17 *353:B1 6.5
5 *42:16 *42:18 21.3999
6 *42:15 *42:17 6.5
7 *42:14 *42:16 6.5
8 *42:13 *42:15 0.137289
9 *42:13 *42:14 0.823732
10 *42:11 *42:13 6.5
11 *42:10 *473:I1 6.5
12 *42:9 *42:11 1.6513
13 *42:8 *42:10 6.5
14 *42:7 *42:9 6.5
15 *42:6 *42:8 0.137289
16 *42:6 *42:7 3.15764
17 *42:5 *42:6 6.5
18 *42:4 *42:5 0.874217
19 *42:3 *42:4 6.5
20 *42:2 *42:3 0.137289
21 *42:1 *42:2 6.5
22 *472:I2 *42:1 6.5
*END

*D_NET *43 0.0199365

*CONN
*I *367:B1 I *C 27.43 -62.34 *L 0.00587 *D MAO222
*I *468:I2 I *C 26.19 -71.86 *L 0.00477 *D ND2
*I *470:I1 I *C 23.71 -71.86 *L 0.00489 *D NR2
*I *272:O O *C 21.43 -196.57 *L 0 *D XMC

*CAP
1 *43:2 5.08363e-05
2 *43:3 5.08363e-05
3 *43:4 0.000691039
4 *43:5 0.000691039
5 *43:6 0.000152509
6 *43:7 0.000355854
7 *43:9 0.000305018
8 *43:12 0.000101673
9 *43:14 0.00868454
10 *43:15 0.00868454
11 *43:16 7.24505e-05
12 *43:17 8.42934e-05
13 *272:O 1.18429e-05

*RES
1 *43:17 *272:O 0.0376429
2 *43:16 *43:17 0.230286
3 *43:15 *43:16 6.5
4 *43:14 *43:15 19.7486
5 *43:12 *43:14 6.5
6 *43:11 *470:I1 6.5
7 *43:9 *43:12 0.274577
8 *43:9 *43:11 6.5
9 *43:8 *468:I2 6.5
10 *43:7 *43:9 0.549155
11 *43:7 *43:8 6.5
12 *43:6 *43:7 0.411866
13 *43:5 *43:6 6.5
14 *43:4 *43:5 1.6513
15 *43:3 *43:4 6.5
16 *43:2 *43:3 0.137289
17 *43:1 *43:2 6.5
18 *367:B1 *43:1 6.5
*END

*D_NET *44 0.0221634

*CONN
*I *385:B1 I *C 3.87 -66.26 *L 0.00587 *D MAO222
*I *483:I1 I *C 5.11 -71.86 *L 0.00359 *D OR2
*I *480:I2 I *C 8.83 -71.86 *L 0.00477 *D ND2
*I *271:O O *C -17.67 -196.57 *L 0 *D XMC

*CAP
1 *44:2 5.06116e-05
2 *44:3 5.06116e-05
3 *44:4 0.000360582
4 *44:5 0.000360582
5 *44:6 5.06116e-05
6 *44:7 0.000151835
7 *44:8 0.000404892
8 *44:9 0.00851132
9 *44:10 0.000303669
10 *44:11 4.00647e-05
11 *44:12 0.00851132
12 *44:13 4.00647e-05
13 *44:14 4.00647e-05
14 *44:15 0.00152646
15 *44:16 4.00647e-05
16 *44:18 0.00152646
17 *44:20 7.39015e-05
18 *44:21 7.39015e-05
19 *44:22 1.1255e-05
20 *44:23 2.32135e-05
21 *271:O 1.19585e-05

*RES
1 *44:23 *271:O 0.0376438
2 *44:22 *44:23 0.0354294
3 *44:21 *44:22 6.5
4 *44:20 *44:21 0.176187
5 *44:18 *44:20 6.5
6 *44:16 *480:I2 6.5
7 *44:15 *44:18 4.80512
8 *44:14 *483:I1 6.5
9 *44:13 *44:16 0.102215
10 *44:12 *44:15 6.5
11 *44:11 *44:14 0.102215
12 *44:10 *44:13 6.5
13 *44:9 *44:12 19.7328
14 *44:8 *44:11 6.5
15 *44:8 *44:10 0.823696
16 *44:7 *44:9 6.5
17 *44:7 *44:8 0.274565
18 *44:6 *44:7 0.137283
19 *44:5 *44:6 6.5
20 *44:4 *44:5 0.919938
21 *44:3 *44:4 6.5
22 *44:2 *44:3 0.137283
23 *44:1 *44:2 6.5
24 *385:B1 *44:1 6.5
*END

*D_NET *45 0.0279047

*CONN
*I *418:B1 I *C -3.57 -56.18 *L 0.00587 *D MAO222
*I *476:I2 I *C -9.15 -66.82 *L 0.00477 *D ND2
*I *477:I1 I *C -9.77 -71.86 *L 0.00489 *D NR2
*I *270:O O *C -56.77 -196.57 *L 0 *D XMC

*CAP
1 *45:1 0.000600971
2 *45:2 0.000600971
3 *45:3 0.000455504
4 *45:4 0.000455504
5 *45:5 0.000160259
6 *45:6 0.000520841